Cenario_2/Tabelas_02/SE_Power_elem_kVA_FP_0.92.txt

CIRCUIT ELEMENT POWER FLOW

(Power Flow into element from indicated Bus)

Power Delivery Elements

  Bus     Phase     kW     +j   kvar         kVA         PF

ELEMENT = "Vsource.SOURCE"
99            1      -171.7 +j   -155.0      231.3       0.7423
99            2      -171.7 +j   -155.0      231.3       0.7423
99            3      -171.7 +j   -155.0      231.3       0.7423
   TERMINAL TOTAL .  -515.1 +j   -465.0      694.0       0.7423
99            0         0.0 +j      0.0        0.0       1.0000
99            0         0.0 +j      0.0        0.0       1.0000
99            0         0.0 +j      0.0        0.0       1.0000
   TERMINAL TOTAL .     0.0 +j      0.0        0.0       1.0000

ELEMENT = "Line.TRECHO_99-1"
99            1       171.7 +j    155.0      231.3       0.7423
99            2       171.7 +j    155.0      231.3       0.7423
99            3       171.7 +j    155.0      231.3       0.7423
   TERMINAL TOTAL .   515.1 +j    465.0      694.0       0.7423
1             1      -171.7 +j   -155.0      231.3       0.7423
1             2      -171.7 +j   -155.0      231.3       0.7423
1             3      -171.7 +j   -155.0      231.3       0.7423
   TERMINAL TOTAL .  -515.1 +j   -465.0      693.9       0.7423

ELEMENT = "Line.TRECHO_1-2"
1             1      -155.5 +j      0.3      155.5      -1.0000
1             2      -155.5 +j      0.3      155.5      -1.0000
1             3      -155.5 +j      0.3      155.5      -1.0000
   TERMINAL TOTAL .  -466.4 +j      0.8      466.4      -1.0000
2             1       155.5 +j     -0.3      155.5      -1.0000
2             2       155.5 +j     -0.3      155.5      -1.0000
2             3       155.5 +j     -0.3      155.5      -1.0000
   TERMINAL TOTAL .   466.5 +j     -0.8      466.5      -1.0000

ELEMENT = "Line.TRECHO_2-6"
2             1      -613.5 +j   -216.3      650.5       0.9431
2             2      -613.5 +j   -216.3      650.5       0.9431
2             3      -613.5 +j   -216.3      650.5       0.9431
   TERMINAL TOTAL . -1840.4 +j   -649.0     1951.5       0.9431
6             1       614.0 +j    216.5      651.0       0.9431
6             2       614.0 +j    216.5      651.0       0.9431
6             3       614.0 +j    216.5      651.0       0.9431
   TERMINAL TOTAL .  1842.0 +j    649.5     1953.1       0.9431

ELEMENT = "Line.TRECHO_6-7"
6             1      -692.5 +j   -253.6      737.5       0.9390
6             2      -692.5 +j   -253.6      737.5       0.9390
6             3      -692.5 +j   -253.6      737.5       0.9390
   TERMINAL TOTAL . -2077.5 +j   -760.9     2212.4       0.9390
7             1       693.1 +j    253.7      738.1       0.9391
7             2       693.1 +j    253.7      738.1       0.9391
7             3       693.1 +j    253.7      738.1       0.9391
   TERMINAL TOTAL .  2079.3 +j    761.1     2214.3       0.9391

ELEMENT = "Line.TRECHO_1-5"
1             1       196.3 +j     92.8      217.2       0.9040
1             2       196.3 +j     92.8      217.2       0.9040
1             3       196.3 +j     92.8      217.2       0.9040
   TERMINAL TOTAL .   589.0 +j    278.5      651.5       0.9040
5             1      -196.3 +j    -92.8      217.1       0.9040
5             2      -196.3 +j    -92.8      217.1       0.9040
5             3      -196.3 +j    -92.8      217.1       0.9040
   TERMINAL TOTAL .  -588.8 +j   -278.5      651.3       0.9040

ELEMENT = "Line.TRECHO_2-3"
2             1       327.1 +j    154.7      361.9       0.9040
2             2       327.1 +j    154.7      361.9       0.9040
2             3       327.1 +j    154.7      361.9       0.9040
   TERMINAL TOTAL .   981.4 +j    464.2     1085.6       0.9040
3             1      -327.1 +j   -154.7      361.9       0.9040
3             2      -327.1 +j   -154.7      361.9       0.9040
3             3      -327.1 +j   -154.7      361.9       0.9040
   TERMINAL TOTAL .  -981.4 +j   -464.1     1085.6       0.9040

ELEMENT = "Line.TRECHO_3-4"
3             1       130.9 +j     61.9      144.7       0.9040
3             2       130.9 +j     61.9      144.7       0.9040
3             3       130.9 +j     61.9      144.7       0.9040
   TERMINAL TOTAL .   392.6 +j    185.6      434.2       0.9040
4             1      -130.8 +j    -61.9      144.7       0.9040
4             2      -130.8 +j    -61.9      144.7       0.9040
4             3      -130.8 +j    -61.9      144.7       0.9040
   TERMINAL TOTAL .  -392.5 +j   -185.6      434.2       0.9040

ELEMENT = "Transformer.TR1"
1             1       130.8 +j     61.9      144.7       0.9040
1             2       130.8 +j     61.9      144.7       0.9040
1             3       130.8 +j     61.9      144.7       0.9040
1             0         0.0 +j      0.0        0.0       1.0000
   TERMINAL TOTAL .   392.5 +j    185.6      434.2       0.9040
BT-TR1        1      -130.3 +j    -55.5      141.7       0.9200
BT-TR1        2      -130.3 +j    -55.5      141.7       0.9200
BT-TR1        3      -130.3 +j    -55.5      141.7       0.9200
BT-TR1        0         0.0 +j      0.0        0.0       1.0000
   TERMINAL TOTAL .  -391.0 +j   -166.6      425.0       0.9200

ELEMENT = "Transformer.TR2"
2             1       130.8 +j     61.9      144.7       0.9040
2             2       130.8 +j     61.9      144.7       0.9040
2             3       130.8 +j     61.9      144.7       0.9040
2             0         0.0 +j      0.0        0.0       1.0000
   TERMINAL TOTAL .   392.5 +j    185.6      434.2       0.9040
BT-TR2        1      -130.3 +j    -55.5      141.7       0.9200
BT-TR2        2      -130.3 +j    -55.5      141.7       0.9200
BT-TR2        3      -130.3 +j    -55.5      141.7       0.9200
BT-TR2        0         0.0 +j      0.0        0.0       1.0000
   TERMINAL TOTAL .  -391.0 +j   -166.6      425.0       0.9200

ELEMENT = "Transformer.TR3"
3             1       196.3 +j     92.8      217.1       0.9040
3             2       196.3 +j     92.8      217.1       0.9040
3             3       196.3 +j     92.8      217.1       0.9040
3             0         0.0 +j      0.0        0.0       1.0000
   TERMINAL TOTAL .   588.8 +j    278.5      651.3       0.9040
BT-TR3        1      -195.5 +j    -83.3      212.5       0.9200
BT-TR3        2      -195.5 +j    -83.3      212.5       0.9200
BT-TR3        3      -195.5 +j    -83.3      212.5       0.9200
BT-TR3        0         0.0 +j      0.0        0.0       1.0000
   TERMINAL TOTAL .  -586.5 +j   -249.9      637.5       0.9200

ELEMENT = "Transformer.TR4"
4             1       130.8 +j     61.9      144.7       0.9040
4             2       130.8 +j     61.9      144.7       0.9040
4             3       130.8 +j     61.9      144.7       0.9040
4             0         0.0 +j      0.0        0.0       1.0000
   TERMINAL TOTAL .   392.5 +j    185.6      434.2       0.9040
BT-TR4        1      -130.3 +j    -55.5      141.7       0.9200
BT-TR4        2      -130.3 +j    -55.5      141.7       0.9200
BT-TR4        3      -130.3 +j    -55.5      141.7       0.9200
BT-TR4        0         0.0 +j      0.0        0.0       1.0000
   TERMINAL TOTAL .  -391.0 +j   -166.6      425.0       0.9200

ELEMENT = "Transformer.TR5"
5             1       196.3 +j     92.8      217.1       0.9040
5             2       196.3 +j     92.8      217.1       0.9040
5             3       196.3 +j     92.8      217.1       0.9040
5             0         0.0 +j      0.0        0.0       1.0000
   TERMINAL TOTAL .   588.8 +j    278.5      651.3       0.9040
BT-TR5        1      -195.5 +j    -83.3      212.5       0.9200
BT-TR5        2      -195.5 +j    -83.3      212.5       0.9200
BT-TR5        3      -195.5 +j    -83.3      212.5       0.9200
BT-TR5        0         0.0 +j      0.0        0.0       1.0000
   TERMINAL TOTAL .  -586.5 +j   -249.9      637.5       0.9200

ELEMENT = "Transformer.TR6"
6             1        78.5 +j     37.1       86.8       0.9040
6             2        78.5 +j     37.1       86.8       0.9040
6             3        78.5 +j     37.1       86.8       0.9040
6             0         0.0 +j      0.0        0.0       1.0000
   TERMINAL TOTAL .   235.5 +j    111.4      260.5       0.9040
BT-TR6        1       -78.2 +j    -33.3       85.0       0.9200
BT-TR6        2       -78.2 +j    -33.3       85.0       0.9200
BT-TR6        3       -78.2 +j    -33.3       85.0       0.9200
BT-TR6        0         0.0 +j      0.0        0.0       1.0000
   TERMINAL TOTAL .  -234.6 +j    -99.9      255.0       0.9200

ELEMENT = "Transformer.TR7"
7             1        58.9 +j     27.8       65.1       0.9041
7             2        58.9 +j     27.8       65.1       0.9041
7             3        58.9 +j     27.8       65.1       0.9041
7             0         0.0 +j      0.0        0.0       1.0000
   TERMINAL TOTAL .   176.6 +j     83.5      195.4       0.9041
BT-TR7        1       -58.7 +j    -25.0       63.8       0.9200
BT-TR7        2       -58.7 +j    -25.0       63.8       0.9200
BT-TR7        3       -58.7 +j    -25.0       63.8       0.9200
BT-TR7        0         0.0 +j      0.0        0.0       1.0000
   TERMINAL TOTAL .  -176.0 +j    -75.0      191.3       0.9200

ELEMENT = "Transformer.TR_AC1"
TR_ACOPL1     1       754.8 +j    321.6      820.4       0.9200
TR_ACOPL1     2       754.8 +j    321.6      820.4       0.9200
TR_ACOPL1     3       754.8 +j    321.6      820.4       0.9200
TR_ACOPL1     0         0.0 +j      0.0        0.0       1.0000
   TERMINAL TOTAL .  2264.3 +j    964.7     2461.3       0.9200
7             1      -752.0 +j   -281.5      803.0       0.9365
7             2      -752.0 +j   -281.5      803.0       0.9365
7             3      -752.0 +j   -281.5      803.0       0.9365
7             0         0.0 +j      0.0        0.0       1.0000
   TERMINAL TOTAL . -2256.0 +j   -844.6     2408.9       0.9365

= = = = = = = = = = = = = = = = = = =  = = = = = = = = = = =  = =

Power Conversion Elements

  Bus     Phase     kW   +j  kvar         kVA         PF

ELEMENT = "Load.LOAD_TR1"
BT-TR1        1     130.3 +j   55.5      141.7       0.9200
BT-TR1        2     130.3 +j   55.5      141.7       0.9200
BT-TR1        3     130.3 +j   55.5      141.7       0.9200
BT-TR1        0       0.0 +j    0.0        0.0       1.0000
  TERMINAL TOTAL  .   391.0 +j    166.6      425.0       0.9200

ELEMENT = "Load.LOAD_TR2"
BT-TR2        1     130.3 +j   55.5      141.7       0.9200
BT-TR2        2     130.3 +j   55.5      141.7       0.9200
BT-TR2        3     130.3 +j   55.5      141.7       0.9200
BT-TR2        0       0.0 +j    0.0        0.0       1.0000
  TERMINAL TOTAL  .   391.0 +j    166.6      425.0       0.9200

ELEMENT = "Load.LOAD_TR3"
BT-TR3        1     195.5 +j   83.3      212.5       0.9200
BT-TR3        2     195.5 +j   83.3      212.5       0.9200
BT-TR3        3     195.5 +j   83.3      212.5       0.9200
BT-TR3        0       0.0 +j    0.0        0.0       1.0000
  TERMINAL TOTAL  .   586.5 +j    249.9      637.5       0.9200

ELEMENT = "Load.LOAD_TR4"
BT-TR4        1     130.3 +j   55.5      141.7       0.9200
BT-TR4        2     130.3 +j   55.5      141.7       0.9200
BT-TR4        3     130.3 +j   55.5      141.7       0.9200
BT-TR4        0       0.0 +j    0.0        0.0       1.0000
  TERMINAL TOTAL  .   391.0 +j    166.6      425.0       0.9200

ELEMENT = "Load.LOAD_TR5"
BT-TR5        1     195.5 +j   83.3      212.5       0.9200
BT-TR5        2     195.5 +j   83.3      212.5       0.9200
BT-TR5        3     195.5 +j   83.3      212.5       0.9200
BT-TR5        0       0.0 +j    0.0        0.0       1.0000
  TERMINAL TOTAL  .   586.5 +j    249.9      637.5       0.9200

ELEMENT = "Load.LOAD_TR6"
BT-TR6        1      78.2 +j   33.3       85.0       0.9200
BT-TR6        2      78.2 +j   33.3       85.0       0.9200
BT-TR6        3      78.2 +j   33.3       85.0       0.9200
BT-TR6        0       0.0 +j    0.0        0.0       1.0000
  TERMINAL TOTAL  .   234.6 +j     99.9      255.0       0.9200

ELEMENT = "Load.LOAD_TR7"
BT-TR7        1      58.7 +j   25.0       63.8       0.9200
BT-TR7        2      58.7 +j   25.0       63.8       0.9200
BT-TR7        3      58.7 +j   25.0       63.8       0.9200
BT-TR7        0       0.0 +j    0.0        0.0       1.0000
  TERMINAL TOTAL  .   176.0 +j     75.0      191.3       0.9200

ELEMENT = "PVSystem.SFV_1"
TR_ACOPL1     1    -754.8 +j -321.6      820.4       0.9200
TR_ACOPL1     2    -754.8 +j -321.6      820.4       0.9200
TR_ACOPL1     3    -754.8 +j -321.6      820.4       0.9200
TR_ACOPL1     0       0.0 +j    0.0        0.0       1.0000
  TERMINAL TOTAL  . -2264.3 +j   -964.7     2461.3       0.9200


Total Circuit Losses =   22.8 +j  255.4
